$ MSC.Nastran input file created on April     15, 2026 at 22:16:00 by
$ Patran 2025.1
$ Direct Text Input for Nastran System Cell Section
$ Direct Text Input for File Management Section
$ Direct Text Input for Executive Control
$ Linear Static Analysis, Database
SOL 101
CEND
$ Direct Text Input for Global Case Control Data
TITLE = MSC.Nastran job created on 15-Apr-26 at 22:15:52
ECHO = NONE
SUBCASE 1
$ Subcase name : Default
   SUBTITLE=Default
   SPC = 2
   DISPLACEMENT(SORT1,REAL)=ALL
   SPCFORCES(SORT1,REAL)=ALL
   STRESS(SORT1,REAL,VONMISES,BILIN)=ALL
BEGIN BULK
$ Direct Text Input for Bulk Data
HDF5OUT PRCISION 32     CMPRMTHD LZ4     LEVEL   5
PARAM   PRTMAXIM YES
$ Elements and Element Properties for region : Ibeam_low_v1
PBARL    1       1               I
         2.      1.5     1.5     .3      .3      .3
$ Pset: "Ibeam_low_v1" will be imported as: "pbarl.1"
CBAR     1684    1       958     2718    0.      1.      0.
                         0.      1.      0.      0.      1.      0.
CBAR     1685    1       2718    2155    0.      1.      0.
                         0.      1.      0.      0.      1.      0.
CBAR     1690    1       2035    2727    0.      1.      0.
                         0.      1.      0.      0.      1.      0.
CBAR     1691    1       2727    958     0.      1.      0.
                         0.      1.      0.      0.      1.      0.
CBAR     1698    1       946     2739    0.      1.      0.
                         0.      1.      0.      0.      1.      0.
CBAR     1699    1       2739    2035    0.      1.      0.
                         0.      1.      0.      0.      1.      0.
CBAR     1704    1       1765    2748    0.      1.      0.
                         0.      1.      0.      0.      1.      0.
CBAR     1705    1       2748    943     0.      1.      0.
                         0.      1.      0.      0.      1.      0.
CBAR     1710    1       943     2757    0.      1.      0.
                         0.      1.      0.      0.      1.      0.
CBAR     1711    1       2757    946     0.      1.      0.
                         0.      1.      0.      0.      1.      0.
CBAR     1844    1       2155    2929    0.      1.      0.
                         0.      1.      0.      0.      1.      0.
CBAR     1845    1       2929    970     0.      1.      0.
                         0.      1.      0.      0.      1.      0.
CBAR     1852    1       970     2920    0.      1.      0.
                         0.      1.      0.      0.      1.      0.
CBAR     1853    1       2920    2283    0.      1.      0.
                         0.      1.      0.      0.      1.      0.
CBAR     1856    1       2283    2911    0.      1.      0.
                         0.      1.      0.      0.      1.      0.
CBAR     1857    1       2911    982     0.      1.      0.
                         0.      1.      0.      0.      1.      0.
CBAR     1864    1       982     2902    0.      1.      0.
                         0.      1.      0.      0.      1.      0.
CBAR     1865    1       2902    988     0.      1.      0.
                         0.      1.      0.      0.      1.      0.
CBAR     1868    1       988     2893    0.      1.      0.
                         0.      1.      0.      0.      1.      0.
CBAR     1869    1       2893    994     0.      1.      0.
                         0.      1.      0.      0.      1.      0.
$ ... 392 like lines cut
$ Elements and Element Properties for region : Ibeam_up_v1
PBARL    2       1               I
         2.      1.5     1.5     .3      .3      .3
$ Pset: "Ibeam_up_v1" will be imported as: "pbarl.2"
CBAR     2640    2       1352    4512    0.      1.      0.
                         0.      -1.     0.      0.      -1.     0.
CBAR     2641    2       4512    1334    0.      1.      0.
                         0.      -1.     0.      0.      -1.     0.
CBAR     2644    2       889     2767    0.      1.      0.
                         0.      -1.     0.      0.      -1.     0.
CBAR     2645    2       2767    1069    0.      1.      0.
                         0.      -1.     0.      0.      -1.     0.
CBAR     2650    2       1334    4527    0.      1.      0.
                         0.      -1.     0.      0.      -1.     0.
CBAR     2651    2       4527    1373    0.      1.      0.
                         0.      -1.     0.      0.      -1.     0.
CBAR     2652    2       1069    2776    0.      1.      0.
                         0.      -1.     0.      0.      -1.     0.
CBAR     2653    2       2776    1093    0.      1.      0.
                         0.      -1.     0.      0.      -1.     0.
CBAR     2654    2       1373    4533    0.      1.      0.
                         0.      -1.     0.      0.      -1.     0.
CBAR     2655    2       4533    1394    0.      1.      0.
                         0.      -1.     0.      0.      -1.     0.
CBAR     2656    2       1093    2785    0.      1.      0.
                         0.      -1.     0.      0.      -1.     0.
CBAR     2657    2       2785    1117    0.      1.      0.
                         0.      -1.     0.      0.      -1.     0.
CBAR     2662    2       1394    4545    0.      1.      0.
                         0.      -1.     0.      0.      -1.     0.
CBAR     2663    2       4545    1415    0.      1.      0.
                         0.      -1.     0.      0.      -1.     0.
CBAR     2664    2       1117    2794    0.      1.      0.
                         0.      -1.     0.      0.      -1.     0.
CBAR     2665    2       2794    1141    0.      1.      0.
                         0.      -1.     0.      0.      -1.     0.
CBAR     2666    2       1415    4551    0.      1.      0.
                         0.      -1.     0.      0.      -1.     0.
CBAR     2667    2       4551    1436    0.      1.      0.
                         0.      -1.     0.      0.      -1.     0.
CBAR     2668    2       1141    2803    0.      1.      0.
                         0.      -1.     0.      0.      -1.     0.
CBAR     2669    2       2803    1165    0.      1.      0.
                         0.      -1.     0.      0.      -1.     0.
$ ... 392 like lines cut
$ Elements and Element Properties for region : forward_aft
PSHELL   3       1       .05     1               1
$ Pset: "forward_aft" will be imported as: "pshell.3"
CQUAD4   1714    3       1699    1698    2766    2765
CQUAD4   1715    3       1698    889     2767    2766
CQUAD4   1716    3       2765    2766    1848    1847
CQUAD4   1717    3       2766    2767    1069    1848
CQUAD4   1718    3       1847    1848    2775    2774
CQUAD4   1719    3       1848    1069    2776    2775
CQUAD4   1720    3       2774    2775    1911    1912
CQUAD4   1721    3       2775    2776    1093    1911
CQUAD4   1722    3       1912    1911    2784    2783
CQUAD4   1723    3       1911    1093    2785    2784
CQUAD4   1724    3       2783    2784    1978    1973
CQUAD4   1725    3       2784    2785    1117    1978
CQUAD4   1726    3       1973    1978    2793    2792
CQUAD4   1727    3       1978    1117    2794    2793
CQUAD4   1728    3       2792    2793    2037    2038
CQUAD4   1729    3       2793    2794    1141    2037
CQUAD4   1730    3       2038    2037    2802    2801
CQUAD4   1731    3       2037    1141    2803    2802
CQUAD4   1732    3       2801    2802    2100    2101
CQUAD4   1733    3       2802    2803    1165    2100
$ ... 76 like lines cut
$ Elements and Element Properties for region : upperlower
PSHELL   4       1       .03     1               1
$ Pset: "upperlower" will be imported as: "pshell.4"
CQUAD4   2256    4       2984    2748    3651    2988
CQUAD4   2257    4       2748    1765    1764    3651
CQUAD4   2258    4       2988    3651    2979    2978
CQUAD4   2259    4       3651    1764    907     2979
CQUAD4   2260    4       2990    2997    3660    2991
CQUAD4   2261    4       2997    2984    2988    3660
CQUAD4   2262    4       2991    3660    2994    2992
CQUAD4   2263    4       3660    2988    2978    2994
CQUAD4   2264    4       2035    2739    3669    2033
CQUAD4   2265    4       2739    2990    2991    3669
CQUAD4   2266    4       2033    3669    3000    1137
CQUAD4   2267    4       3669    2991    2992    3000
CQUAD4   2268    4       958     2727    3678    3009
CQUAD4   2269    4       2727    2035    2033    3678
CQUAD4   2270    4       3009    3678    3012    3010
CQUAD4   2271    4       3678    2033    1137    3012
CQUAD4   2272    4       2155    2718    3687    2160
CQUAD4   2273    4       2718    958     3009    3687
CQUAD4   2274    4       2160    3687    3018    1185
CQUAD4   2275    4       3687    3009    3010    3018
$ ... 748 like lines cut
$ Elements and Element Properties for region : bulkhead
PSHELL   5       1       .125    1               1
$ Pset: "bulkhead" will be imported as: "pshell.5"
CQUAD4   1201    5       889     890     1696    1698
CQUAD4   1202    5       890     891     1697    1696
CQUAD4   1203    5       1696    1697    1699    1698
CQUAD4   1204    5       889     1701    1704    890
CQUAD4   1205    5       1701    1352    1705    1704
CQUAD4   1206    5       890     1704    893     891
CQUAD4   1207    5       1704    1705    894     893
CQUAD4   1208    5       891     1710    1713    893
CQUAD4   1209    5       1710    1355    1714    1713
CQUAD4   1210    5       893     1713    896     894
CQUAD4   1211    5       1713    1714    897     896
CQUAD4   1212    5       894     1719    1722    896
CQUAD4   1213    5       1719    1358    1723    1722
CQUAD4   1214    5       896     1722    899     897
CQUAD4   1215    5       1722    1723    900     899
CQUAD4   1216    5       897     1728    1731    899
CQUAD4   1217    5       1728    1361    1732    1731
CQUAD4   1218    5       899     1731    902     900
CQUAD4   1219    5       1731    1732    903     902
CQUAD4   1220    5       900     1737    1740    902
$ ... 345 like lines cut
$ Referenced Material Records
$ Material Record : Al7xxx_v1
$ Description of Material : Date: 15-Apr-26           Time: 12:08:31
MAT1     1       1.+7            .33
$ Nodes of the Entire Model
GRID*    889                            5.346530087991-6 9.6873731613159
*       -65.999137878418
GRID*    890                            6.391534952854-62.27965068817139
*       -57.749542236328
GRID*    891                            7.436539817718-6-5.1280717849731
*       -49.499942779541
GRID*    893                            7.811998329998-6 2.7827615737915
*       -41.249786376953
GRID*    894                            8.187456842279-610.6935949325562
*       -32.999626159668
GRID*    896                            9.249431968783-6 2.8978579044342
*       -24.749917984009
GRID*    897                            1.031140618579-5-4.8978791236877
*        -16.50020980835
GRID*    899                            1.070183861884-52.67003035545349
*        -8.250226020813
GRID*    900                            1.109227196139-510.2379398345947
*       -2.42212976445-4
GRID*    902                            1.211960079672-53.23559474945068
*       8.24986553192139
GRID*    903                            1.314693054155-5-3.7667503356934
*       16.4999732971191
GRID*    905                            1.359840462101-52.40465450286865
*       24.7499389648438
GRID*    906                            1.404987960996-58.57605934143066
*       32.9999046325684
GRID*    907                            1.596297806827-5-2.1919505596161
*       49.4992065429688
GRID*    908                            1.500642883911-5 3.192054271698
*       41.2495574951172
GRID*    911                            1.650321064517-51.95197427272797
*       57.7507057189941
GRID*    912                            1.704344322206-56.09589910507202
*       66.0022048950195
GRID*    913                            255.600006103516 5.3280553817749
*       83.7004699707031
GRID*    914                            255.6000061035161.25380802154541
*       88.2377471923828
GRID*    915                            255.600006103516-2.8204393386841
*        92.775016784668
$ ... 2236 like lines cut
$ Loads for Load Case : Default
SPCADD   2       1
$ Displacement Constraints of Load Set : fixed
SPC1     1       123456  889     891     894     897     900     903
         906     907     912     1699    1765
$ Referenced Coordinate Frames
ENDDATA 1feae722
